# total energy = -224.21625213 eV
CRYSTAL
PRIMVEC
      4.9086       0.0000       0.0000 
     -1.5899       4.6279       0.0000 
      0.0000       0.0000      24.0416 
PRIMCOORD
28 1 
  Mg       0.0000     0.0000     0.0000       0.0000    -0.0000    -0.0088  
  Mg       2.4543     0.0000     0.0000       0.0000     0.0000    -0.0088  
  Mg      -0.7950     2.3140     0.0000      -0.0000    -0.0000    -0.0088  
  Mg       1.6593     2.3140     0.0000       0.0000     0.0000    -0.0088  
  Mg       0.8297     1.1570     2.0039      -0.0000    -0.0000    -0.0230  
  Mg       0.0347     3.4709     2.0039      -0.0000    -0.0000    -0.0231  
  Mg       3.2840     1.1570     2.0039       0.0000     0.0000    -0.0229  
  Mg       2.4890     3.4709     2.0039       0.0000     0.0000    -0.0230  
  Mg       0.0000     0.0000     4.0140      -0.0003     0.0000     0.0135  
  Mg       2.4543    -0.0000     4.0140       0.0003     0.0002     0.0137  
  Mg      -0.7950     2.3140     4.0140      -0.0003    -0.0002     0.0134  
  Mg       1.6593     2.3140     4.0140       0.0003    -0.0000     0.0137  
  Mg       0.8297     1.1570     6.0068       0.0003     0.0000     0.0112  
  Mg       0.0347     3.4709     6.0068       0.0003     0.0002     0.0113  
  Mg       3.2840     1.1570     6.0068      -0.0003    -0.0002     0.0107  
  Mg       2.4890     3.4709     6.0068      -0.0003     0.0000     0.0109  
  Mg      -0.0000     0.0000     8.0019       0.0003     0.0000     0.0016  
  Mg       2.4543     0.0000     8.0019      -0.0003    -0.0002     0.0017  
  Mg      -0.7950     2.3139     8.0019       0.0004     0.0002     0.0020  
  Mg       1.6594     2.3140     8.0019      -0.0004    -0.0000     0.0019  
  Mg       0.8297     1.1569    10.0173       0.0002     0.0005     0.0060  
  Mg       0.0347     3.4709    10.0173       0.0003    -0.0004     0.0060  
  Mg       3.2840     1.1570    10.0172      -0.0003     0.0004     0.0062  
  Mg       2.4890     3.4710    10.0172      -0.0002    -0.0005     0.0062  
  Mg       0.0000     0.0000    12.0231      -0.0000    -0.0000    -0.0006  
  Mg       2.4543     0.0000    12.0231       0.0000     0.0000    -0.0007  
  Mg      -0.7950     2.3140    12.0231      -0.0000    -0.0000    -0.0008  
  Mg       1.6593     2.3140    12.0231       0.0000     0.0000    -0.0009  
